16
	Energy:     623.6444787
C         -7.23143        2.51861        0.20426
C         -7.21689        1.15356       -0.19933
C         -6.59604        0.09396       -0.41798
C         -5.55660        2.54722       -0.55261
C         -5.54356        1.16257        0.56468
C         -5.52700       -0.51380       -0.20605
C         -4.16787        2.56200        0.55680
C         -4.16078        1.17123       -0.55267
C         -4.16401       -0.50231        0.20950
C         -2.49394        2.55937       -0.20651
C         -2.48337        1.19579        0.20461
C         -3.10615        0.13202        0.40387
C         -3.13236        3.61346       -0.40825
C         -4.19640        4.23845       -0.21405
C         -5.55752        4.22338        0.20991
C         -6.61296        3.58483        0.40381
