34
	Energy:     784.3960827
C         -9.38036        3.64800       -0.32535
C         -7.86547        3.87161       -0.20792
C         -9.08450        2.28363       -0.74268
C         -8.13135        2.41646        0.49893
C         -9.49017        0.99470        0.00000
C         -7.81470        0.99470        0.00000
C         -9.12065       -0.42242       -0.36273
C         -8.13137       -0.32471        0.73083
C         -6.89863        3.83270        1.01567
C         -6.60239        2.38954        0.39251
C         -6.86841        1.08018        1.20315
C         -6.58741       -0.50771        0.62843
C         -5.37766        3.89575        0.82705
C         -5.56701        2.47550        1.50773
C         -5.31152        1.06466        1.00803
C         -5.59759       -0.23011        1.80017
C         -4.26955        3.88699        1.81549
C         -4.03636        2.49308        1.35608
C         -4.14605        1.18252        2.18016
C         -4.14477       -0.29264        1.73849
H        -10.03945        4.32368       -0.85564
H         -8.01163        4.95809       -0.11143
H         -7.31197        3.96461        2.02786
H         -5.03383        3.99901       -0.21517
H         -3.49658        4.64175        1.86412
H         -3.53239        2.41704        0.37850
H         -3.06254        1.14984        2.37167
H         -3.53840       -1.04974        2.21965
H         -6.00392       -0.23910        2.82446
H         -6.63190       -1.58600        0.83883
H         -8.57268       -0.36175        1.74005
H         -9.84554       -1.21955       -0.45796
H        -10.76553        0.99470        0.00000
H         -8.69943        2.18693       -1.76889
