60
	Energy:      33.4445836
C          0.66068        1.05302       -0.13914
C         -0.66527        0.18042       -0.35300
C          1.40376       -0.34382       -0.13757
C          0.08005       -0.86214        0.56393
C          1.10521        2.05577       -1.19686
C          0.23643        3.31825       -1.25908
C          0.24693        4.16412        0.01896
C          2.64881       -0.77676        0.63392
C          3.65478        0.32125        0.95147
C          4.87555        0.32147        0.02532
C         -0.18192       -2.36295        0.68227
C          0.26346       -3.22143       -0.49743
C          0.34039       -4.69036       -0.05775
C         -1.95078        0.88258        0.08779
C         -3.03388       -0.07376        0.59279
C         -4.37664        0.10509       -0.12193
C          6.08885        0.91892        0.72843
C         -5.52107       -0.48133        0.69357
H         -5.67445        0.09823        1.61051
H         -6.45292       -0.45353        0.12028
H         -5.32171       -1.51997        0.97514
H         -4.58556        1.16433       -0.30709
H         -4.33339       -0.39422       -1.09744
H         -3.16875        0.10754        1.66684
H         -2.73698       -1.11844        0.48770
H         -1.73132        1.59713        0.88955
H         -2.32798        1.47554       -0.75399
H          2.14076        2.35825       -0.99533
H          1.10413        1.58329       -2.18503
H         -0.79855        3.05518       -1.50751
H          0.60575        3.93013       -2.09084
H         -0.38409        3.69729        0.78204
H          1.26225        4.22698        0.42944
H         -1.26259        5.56380       -0.68761
H          0.40845        6.11226       -0.92192
H         -0.31329        6.14480        0.69267
H          3.13481       -1.59229        0.08102
H          2.34886       -1.22758        1.58696
H          3.19372        1.31308        0.96644
H          4.00746        0.13391        1.97412
H          4.65336        0.89124       -0.88353
H          5.13508       -0.69705       -0.28623
H          5.88134        1.93063        1.08955
H          6.37636        0.30234        1.58825
H          6.94614        0.96098        0.04995
H          0.35487       -2.71102        1.57566
H         -1.23839       -2.55280        0.89317
H         -0.43544       -3.10333       -1.33311
H          1.25097       -2.92053       -0.85814
H         -0.63710       -5.02409        0.30860
H          1.04432       -4.78301        0.77968
H          0.08909       -5.61374       -2.00081
H          1.78200       -5.30704       -1.55470
H          0.89240       -6.63656       -0.79661
C          0.80293       -5.61157       -1.17218
C         -0.26205        5.57694       -0.24194
H         -0.78757       -0.19282       -1.38122
H          0.70085        1.52765        0.85404
H          1.52035       -0.69933       -1.17529
H          0.02033       -0.51446        1.61321
