65
	Energy:      17.7333782
C         -7.85871        3.46052        0.00162
H         -6.76653        3.44813        0.00274
H         -8.21383        4.22360       -0.69450
H         -8.22159        3.68774        1.00643
H         -8.23376        2.48263       -0.30818
C          2.48087        2.35379       -0.70232
C          2.25724        1.04179        0.06021
C          2.36250       -0.16345       -0.87493
C          2.17388       -1.48752       -0.12634
C          2.51024       -2.66786       -1.03908
C          2.32229       -4.04401       -0.38765
C          1.18419        3.94055        0.84353
C          0.25528        4.67913       -0.12794
C         -1.21618        4.30664        0.07960
C         -1.58827        3.04780       -0.71354
C         -3.03122        2.60239       -0.46671
C         -3.18625        1.51973        0.60371
C         -2.58967        0.15929        0.20529
C         -2.29295       -2.19518        1.20679
C         -2.10176       -2.99496       -0.08602
C         -1.49754       -4.38131        0.19571
C         -0.02130       -4.33192        0.61229
C          0.90902       -4.60783       -0.57054
H          3.25834        3.38999        1.01929
H          2.91483        4.43800       -0.34811
H          3.43800        2.29205       -1.23700
H          1.70429        2.47882       -1.46380
H          1.27004        1.03973        0.53716
H          1.60864       -0.08380       -1.66592
H          1.13898       -1.55199        0.22737
H          1.92979       -2.60288       -1.96606
H          3.01174       -4.73233       -0.89391
H          0.47566       -4.24234       -1.50750
H          0.22080       -3.38253        1.09353
H         -2.07696       -4.86260        0.99359
H         -1.47073       -2.44184       -0.79144
H         -1.32059       -1.89419        1.61170
H         -3.35055       -0.57190        2.08860
H         -1.50010        0.19255        0.31601
H         -2.73046        1.85419        1.54401
H         -3.64561        3.46698       -0.18523
H         -0.88255        2.23879       -0.50359
H         -1.43399        4.17784        1.14620
H          0.53790        4.50439       -1.17261
H          0.70410        3.04789        1.25489
H          3.00334        0.95110        0.85698
H          3.34570       -0.15411       -1.36363
H          2.82430       -1.51500        0.75457
H          3.56509       -2.57692       -1.33143
H          2.61874       -4.03110        0.66705
H          0.98667       -5.69866       -0.67694
H          0.15583       -5.10697        1.36903
H         -1.61984       -5.01586       -0.69066
H         -3.07596       -3.13863       -0.56884
H         -2.75526       -2.84686        1.95893
C         -3.17797       -0.95557        1.07540
H          1.36820        4.60266        1.69986
H          0.37409        5.75677        0.04205
H         -1.83900        5.13760       -0.27497
H         -1.48345        3.28170       -1.78081
H         -3.45184        2.22184       -1.40526
H         -4.25898        1.39817        0.80007
H         -2.80290       -0.05805       -0.84813
H         -4.16127       -1.24140        0.68078
C          2.53380        3.57923        0.21860
